<?xml version="1.0" encoding="UTF-8"?>

<!-- generated on 2023-06-18 10:58:13 by Eclipse SUMO jtrrouter Version 1.17.0
<configuration xmlns:xsi="http://www.w3.org/2001/XMLSchema-instance" xsi:noNamespaceSchemaLocation="http://sumo.dlr.de/xsd/jtrrouterConfiguration.xsd">

    <input>
        <net-file value="grid.net.xml"/>
        <route-files value="flows.xml"/>
    </input>

    <output>
        <output-file value="grid.rou.xml"/>
    </output>

    <processing>
        <accept-all-destinations value="true"/>
    </processing>

    <time>
        <begin value="0"/>
        <end value="10000"/>
    </time>

</configuration>
-->

<routes xmlns:xsi="http://www.w3.org/2001/XMLSchema-instance" xsi:noNamespaceSchemaLocation="http://sumo.dlr.de/xsd/routes_file.xsd">
    <vehicle id="0.0" depart="0.00">
        <route edges="320714102#0 320714102#1 -321768113#8 -321768113#7 -321768113#6 -321768113#5 -321768113#4 -52168649#2 -52168649#1 -52168649#0 -320714100#4 -320714100#3 -320714100#2 -320714100#1 -320714100#0 -37346737#2 -37346737#1 -37346737#0 37346737#0 37346737#1 37346737#2 320714100#0 320714100#1 320714100#2 320714100#3 320714100#4 320714100#5 -320714100#5 52168649#0 52168649#1 52168649#2 321768113#4 321768113#5 1062994601#0 1062994601#1 1062994601#2 1062994601#3 -1062994601#3 -1062994601#2 -1062994601#1 -1062994601#0 321768113#6 321768113#7 321768113#8 -320714102#1 -320714102#0 -491319829#5 -491319829#4 -491319829#3 -491319829#2 -491319829#1 -491319829#0 491319829#0 491319829#1 572408002#0 572408002#1 572408002#2 572408002#3 572408002#4 572408002#5 572408002#6 572408002#7 572408002#8 572408002#9 572408002#10 572408002#11 572408002#12 680377668#0 680377668#1 680377668#2 -680377668#2 -680377668#1 -680377668#0 -190598268#2 -190598268#1 -190598268#0 25492445#6 25492445#7 25492445#8 25492445#9 25492445#10 25492445#11 25492445#12 91765018#17 91765018#18 91765018#19 91765018#20 91765018#21 91765018#22 91765018#23 91765018#24 91765018#25 91765018#26 91765018#27 52597526#6 52597526#7 52597526#8 52559590#0 52559590#1 52559590#2 52559590#3 52559590#4 52559590#5 -52559590#5 -52559590#4 -52559590#3 -52559590#2 -52559590#1 -52559590#0 52597526#9 52597526#10 52597526#11 52597526#12 52597526#13 374851982#14 374851982#15 374851982#16 374851982#17 87054826#0 87054826#1 87054826#2 87054826#3 87054826#4 87054826#5 87054826#6 87054826#7 87054826#8 87054826#9 369453295#20 369453295#21 86642254#7 86642254#8 86642254#9 86642254#10 86642254#11 86642254#12 86642254#13 86642254#14 86642254#15 86642254#16 86642254#17 86642254#18 -374851982#19 -374851982#18 -374851982#17 -374851982#16 -374851982#15 -374851982#14 -374851982#13 -374851982#12 -374851982#11 -374851982#10 -374851982#9 -374851982#8 -374851982#7 184876753#4 184876753#5 184876753#6 184876753#7 184876753#8 91765018#31 91765018#32 91765018#33 91765018#34 91765018#35 91765018#36 91765018#37 91765018#38 91765018#39 91765018#40 91765018#41 91765018#42 53274156#0 53274156#1 -53274156#1 -53274156#0 91765018#43 91765018#44 91765018#45 91765018#46 91765018#47 91765018#48"/>
    </vehicle>
    <vehicle id="1.0" depart="0.00">
        <route edges="-50743232#7 50653959#0 50653959#1 50653959#2 369702953#0 369702953#1 369702953#2 369702953#3 -369702953#3 -369702953#2 -369702953#1 -369702953#0 -635296816#4 -635296816#3 -635296816#2 635296816#2 635296816#3 635296816#4"/>
    </vehicle>
    <vehicle id="10.0" depart="0.00">
        <route edges="51276866#21 51276866#22 51276866#23 50668516#0 50668516#1 -50668516#1 -50668516#0 51276866#24 86503277#16 86503277#17 47281324#0 47281324#1 47281917#0 51276866#26 51276866#27 51276866#28 51276866#29 182420587#0 189343820 -51276993 51276993 -189343820 -182420587#0 -520978369#1 -520978369#0 532062611 532062610 47281321#0 -47281321#0 -532062610 -532062611 -539659556#3 -539659556#2 -920980757 23920957#0 23920957#1 51510540 -51510540 23920957#2 -86503277#14 -51276988#2 51276988#2 86503277#14 -23920957#2 -23920957#1 -23920957#0 920980757 -539659556#1 -539659556#0 539659556#0 539659556#1 539659556#2 539659556#3 520978369#0 520978369#1 -51276866#29 -51276866#28 -51276866#27 -51276866#26 47281917#1 -161146049 161146049 47281917#2 47281917#3 -47281917#3 -47281917#2 -47281917#1 -47281917#0 47281324#2 182420587#3 182420587#4 182420587#5 -182420587#5 -182420587#4 51276990 -51276990 -182420587#3 -47281324#2 -47281324#1 51276991 -51276991 -47281324#0 -86503277#17 -86503277#16 -86503277#15 23920957#3 23920957#4 23920957#5 23920957#6 23920957#7 23920957#8 -23920957#8 -23920957#7 -23920957#6 -23920957#5 -23920957#4 -23920957#3 86503277#15 -51276866#24 -51276866#23 -51276866#22 -51276866#21 -190598271#1 -190598271#0 190598271#0 190598271#1 -51276866#20 -51276866#19 -51276866#18 51276866#18 51276866#19 51276866#20"/>
    </vehicle>
    <vehicle id="100.0" depart="0.00">
        <route edges="87054726 -87054726 52514447#4 170094569 47281322#0 47281322#1 47281322#2 47281322#3 47281322#4 47281322#5 616115571#0 616115571#1 616115571#2 616115571#3 -616115571#3 -616115571#2 744871137#0 744871137#1 744871137#2 744871137#3 25492475#1 25492475#2 -25492475#2 -25492475#1 -25492475#0 25492475#0"/>
    </vehicle>
    <vehicle id="101.0" depart="0.00">
        <route edges="52597526#7 52597526#8 52597526#9 52597526#10 52597526#11 52597526#12 52597526#13 -374851982#13 -374851982#12 -374851982#11 -374851982#10 -374851982#9 -374851982#8 -374851982#7 184876753#4 184876753#5 184876753#6 184876753#7 184876753#8 91765018#31 91765018#32 91765018#33 91765018#34 91765018#35 91765018#36 91765018#37 91765018#38 91765018#39 369453296#5 602818599#0 -602818599#0 -369453296#5 91765018#40 91765018#41 91765018#42 91765018#43 31725372#14 31725372#15 -51276900 51276900 -31725372#15 -31725372#14 91765018#44 91765018#45 91765018#46 91765018#47 91765018#48"/>
    </vehicle>
    <vehicle id="102.0" depart="0.00">
        <route edges="186521545#2 186521545#3 186521545#4 -31725671 -31725670#4 -31725670#3 -106795468 184718317#0 184718317#1 184718317#2 -184718317#2 -31725372#34 -31725372#33 -31725372#32 31725372#32 31725372#33 31725372#34 -184718317#1 -184718317#0 -50651712#1 -50651712#0 -186521545#4 -186521545#3 -186521545#2 -186521545#1 -186521545#0 25506360#0 1164335977#0 1164335977#1 1164335977#2 53095626#0 -53095626#0 -1164335977#2 -1164335977#1 -1164335977#0 25506360#1 -87650507#2 -87650507#1 -87650507#0 -602818598#12 -602818598#11 602818598#11 602818598#12 602818598#13 50651712#0 50651712#1 106795468 -31725670#2 -31725670#1 31725670#1 31725670#2 31725670#3 31725670#4 31725670#5 31725670#6 31725670#7 31725670#8 35776193#2 -35776193#2 -35776193#1 -35776193#0 35776193#0 35776193#1 31725670#9 31725670#10 31725670#11 31725670#12 -53021188#3 -53021188#2 -53021188#1 -53021188#0 37343977#1 37343977#2 37343977#3 37343977#4 37343977#5 37343977#6 37343977#7 37343977#8 162854030#1 162854030#2 1135145037 -693415591 -53024361#9 -53024361#8 53024361#8 53024361#9 1074142765#0 1074142765#1 -1074142765#1 -1074142765#0 693415591 -1135145037 162854030#3 796494573#0 796494573#1 -796494573#1 -796494573#0 -162854030#3 -162854030#2 -162854030#1 -162854030#0 -25492302#2 -25492302#1 -25492302#0 25492302#0 25492302#1 25492302#2 162854030#0 37343977#9 37343977#10 37343977#11 50434028#1 50434028#2 50434021#0 50434021#1 1074142766#0 1074142766#1 1074142766#2 50653959#0 50653959#1 50653959#2 369702953#0 1074142764#0 1074142764#1 1074142764#2 1074142764#3 1074142764#4 1074142764#5 51276866#0 51276866#1 191025791 -50743232#2 -50743232#1 -50743232#0 -186796675#6 -186796675#5 -186796675#4 183002659#7 183002659#8 183002659#9 -51276866#11 -51276866#10 -51276866#9 -51276866#8 -51276866#7 -51276866#6 -51276866#5 374851977#16 374851977#17 -374851977#17 -374851977#16 -374851977#15 -374851977#14 -374851977#13 50743232#0 50743232#1 50743232#2 191025792#0 191025792#1 -369702953#3 -369702953#2 -369702953#1 -369702953#0 -635296816#4 -635296816#3 -635296816#2 -53024361#4 -53024361#3 -53024361#2 -53024361#1 -53024361#0 -491319829#4 -491319829#3 -491319829#2 -491319829#1 -491319829#0 -272021673#5 -272021673#4 -272021673#3 -272021673#2 -272021673#1 -272021673#0 272021673#0 272021673#1 272021673#2 272021673#3 191025792#8 191025792#9 191025792#10 191025792#11 191025792#12 191025792#13 191025792#14 191025792#15 191025792#16 191025792#17 344137958#0 344137958#1 344137958#2 344137958#3 344137958#4 344137958#5 344137958#6 190598269#0 190598269#1 190598269#2 190598269#3 190598269#4 56318966#0 56318966#1 56318966#2 56318966#3 56318966#4 56318966#5 56318966#6 56318966#7 56318966#8 56318966#9 56318966#10 25506382#0 25506382#1 25506382#2 25506382#3 25506382#4 25506382#5 25506382#6 25506382#7 25506382#8 25506382#9 -25506382#9 -25506382#8 -25506382#7 -25506382#6 1086724050#0 1086724050#1 1086724050#2 183002659#0 183002659#1 183002659#2 183002659#3 183002659#4 183002659#5 183002659#6 -183002659#6 -183002659#5 -183002659#4 -183002659#3 -183002659#2 -183002659#1 -183002659#0 -621173203#4 -621173203#3 -621173203#2 -621173203#1 -621173203#0 -374852691 374852690#0 374852690#1 374852690#2 374852690#3 374852690#4 374852690#5 374852690#6 374852690#7 374852690#8 374852690#9 374852690#10 374852690#11 374852690#12 374852690#13 374852690#14 51276866#14 51276866#15 51276866#16 51276866#17 51276866#18 51276866#19 -1121014327#4 -1175214617 1175214617 1121014327#4 51276866#20 -51276866#20 -51276866#19 -51276866#18 -51276866#17 -51276866#16 -51276866#15 -51276866#14 -51276866#13 22774751#1 22774751#2 186796675#1 186796675#2 186796675#3 186796675#4 186796675#5 186796675#6 374851977#13 374851977#14 374851977#15 51276866#5 51276866#6 51276866#7 51276866#8 51276866#9 51276866#10 -1110950818#1 -1110950818#0 1110950818#0 1110950818#1 51276866#11 -183002659#9 -183002659#8 -183002659#7 -186796675#3 -186796675#2 -186796675#1 -186796675#0 -603226913 -23920957#10 -23920957#9 -190598273#6 -190598273#5 -190598273#4 -190598273#3 -190598273#2 -190598273#1 -190598273#0 -50218397#6 -50218397#5 -50218397#4 -50218397#3 -50218397#2 -50218397#1 -50218397#0 86503274#0 86503274#1 -86503274#1 -86503274#0 -50434049#2 -50434049#1 -50434049#0 82924465#0 82924465#1 82924465#2 82924465#3 82924465#4 -82924465#4 -82924465#3 -82924465#2 -82924465#1 -82924465#0 -422831119 422831052 422831051 22774129#0 -277523398#3 -277523398#2 -277523398#1 -277523398#0 -25492475#2 -25492475#1 -25492475#0 25492475#0 25492475#1 25492475#2 277523398#0 277523398#1 277523398#2 277523398#3 22774129#1 22774129#2 22774129#3 22774129#4 22774129#5 22774129#6"/>
    </vehicle>
    <vehicle id="103.0" depart="0.00">
        <route edges="-83911281#1 -83911281#0 103179695#0 -189034272#1 -189034272#0 25492462#0 70749497#0 -70749497#0 25492462#1 25492462#2 -52459718#1 -52459718#0 52459718#0 52459718#1 102579135 190598270#0 190598270#1 190598270#2 190598270#3 190598270#4 190598270#5 37177801#6 37177801#7 37177801#8 37177801#9 -23920899#3 -23920899#2 -23920899#1 -23920899#0 52038341#0 52038341#1 52038341#2 -86503276#4 -86503276#3 -86503276#2 -86503276#1 -103179695#2 -54357891#2 -54357891#1 -54357891#0 54357891#0 54357891#1 54357891#2 103179695#2 -86503276#0 -25492462#2 -25492462#1 -25492462#0 189034272#0 -189034267 70749497#1 -70749497#1 189034267 189034272#1 103179695#1 -103179695#1 -103179695#0 83911281#0 83911281#1 83911281#2 -83911281#2"/>
    </vehicle>
    <vehicle id="104.0" depart="0.00">
        <route edges="-64973291#1 64973293 -64973293 64973291#1 51382231#0 35777529#1 35777529#2 35777529#3 35777529#4 35777529#5 35777529#6 35777529#7 35777529#8 52038341#0 52038341#1 52038341#2 86503276#5 86503276#6 86503276#7 186788348#0 186788348#1 186788348#2 186788348#3 186788348#4 186788348#5 186788348#6 272021674#0 272021674#1 272021674#2 272021674#3 -35777529#18 -35777529#17 -35777529#16 -35777529#15 -35777529#14 -35777529#13 -35777529#12 -35777529#11 -35777529#10 -35777529#9 -35777529#8 -35777529#7 -35777529#6 -35777529#5 -35777529#4 -35777529#3 -35777529#2 65677788#0 65677788#1 -65677788#1 -65677788#0 -35777529#1 -35777529#0 35777529#0 51382231#1 51382231#2 51382231#3 51382231#4 -51382231#4 -51382231#3 -51382231#2 -51382231#1 -51382231#0 64973291#2 64973291#3 -64973291#3 -64973291#2"/>
    </vehicle>
    <vehicle id="105.0" depart="0.00">
        <route edges="-50449360 53574875#4 53574875#5 53574875#6 -53574875#6 -53574875#5 1120995958 -1120995958 -53574875#4 -53574875#3 1120995957 -1120995957 -53574875#2 -53574875#1 -53574875#0 -164779283#1 -164779283#0 -164779282#6 -164779282#5 -164779282#4 -164779282#3 -164779282#2 -164779282#1 -164779282#0 -369453295#4 -369453295#3 -369453295#2 -369453295#1 -369453295#0 -95930862#5 -95930862#4 -95930862#3 49607350#0 49607350#1 49607350#2 49607350#3 -49607350#3 -49607350#2 -49607350#1 -49607350#0 -95930862#2 31725372#8 31725372#9 31725372#10 31725372#11 31725372#12 31725372#13 91765018#44 91765018#45 91765018#46 91765018#47 91765018#48"/>
    </vehicle>
    <vehicle id="106.0" depart="0.00">
        <route edges="164779282#3 -53274165#2 -53274165#1 -53274165#0 -452907495#1 -452907495#0 452907495#0 452907495#1 452907495#2 452907495#3 452907495#4 369453295#10 369453295#11 369453295#12 369453295#13 369453295#14 369453295#15 52597526#0 52597526#1 -173117219#5 -173117219#4 -173117219#3 -173117219#2 -173117219#1 784098321#0 177689682#0 177689682#1 62052780#6 778519863#0 778519863#1 778519863#2 778519863#3 778519863#4 173117219#0 173117219#1 173117219#2 173117219#3 173117219#4 173117219#5 52597526#2 52597526#3 52597526#4 52597526#5 91765018#28 52559298#1 52559298#2 52559298#3 -52559298#3 -52559298#2 -52559298#1 -52559298#0 -784098321#2 52559085#3 52559085#4 -52559085#4 -52559085#3 784098321#2 52559298#0 91765018#29 91765018#30 91765018#31 91765018#32 91765018#33 91765018#34 91765018#35 91765018#36 91765018#37 91765018#38 91765018#39 91765018#40 91765018#41 91765018#42 53274156#0 53274156#1 -53274156#1 -53274156#0 91765018#43 31725372#14 31725372#15 31725372#16 31725372#17 31725372#18 31725372#19 31725372#20 415111688#7 415111688#8 415111688#9 -415111688#9 -415111688#8 -415111688#7 -415111688#6 -415111688#5 -415111688#4 -415111688#3 -602818598#3 -602818598#2 -602818598#1 374851982#0 374851982#1 374851982#2 374851982#3 -52582936#2 -52582936#1 -52582936#0 52582936#0 52582936#1 52582936#2 374851982#4 374851982#5 374851982#6 374851982#7 374851982#8 374851982#9 374851982#10 374851982#11 374851982#12 374851982#13 52597526#14 52597526#15 52597526#16 52597526#17 -188873353#3 -188873353#2 -188873353#1 -188873353#0 -633635907#5 -633635907#4 -633635907#3 -633635907#2 37346737#0 37346737#1 37346737#2 320714100#0 320714100#1 320714100#2 320714100#3 320714100#4 -320714100#4 -320714100#3 -320714100#2 -320714100#1 -320714100#0 -37346737#2 -37346737#1 -37346737#0 -633635907#1 -633635907#0 -491319829#6 491319829#6 633635907#0 633635907#1 633635907#2 633635907#3 633635907#4 633635907#5 37346732#0 37346732#1 37346732#2 37346732#3 87054826#0 87054826#1 87054826#2 87054826#3 87054826#4 87054826#5 87054826#6 87054826#7 87054826#8 87054826#9 369453295#20 369453295#21 86642254#7 86642254#8 86642254#9 86642254#10 86642254#11 86642254#12 86642254#13 91765018#23 91765018#24 91765018#25 91765018#26 91765018#27 52597526#6 52597526#7 52597526#8 52559590#0 52559590#1 52559590#2 52559590#3 52559590#4 52559590#5 52559590#6 52559590#7 52559590#8 184876753#6 184876753#7 184876753#8 62052780#0 62052780#1 62052780#2 62052780#3 62052780#4 62052780#5 -177689682#1 -177689682#0 -784098321#0 -173117219#0 -778519863#4 -778519863#3 -778519863#2 -778519863#1 -778519863#0 62052780#7 62052780#8 164779282#0 164779282#1 164779282#2"/>
    </vehicle>
    <vehicle id="107.0" depart="0.00">
        <route edges="86503277#19 86503277#20 86503277#21 187951698#1 187951698#2 187951698#3 187951698#4 187951698#5 187951698#6 187951698#7 187951698#8 187951698#9 160368869"/>
    </vehicle>
    <vehicle id="108.0" depart="0.00">
        <route edges="25492445#5 25492445#6 25492445#7 25492445#8 25492445#9 25492445#10 25492445#11 25492445#12 91765018#17 91765018#18 91765018#19 91765018#20 91765018#21 91765018#22 86642254#14 86642254#15 86642254#16 86642254#17 86642254#18 -374851982#19 -374851982#18 374851982#18 374851982#19 86503275#0 86503275#1 86503275#2 -633635907#1 -633635907#0 -491319829#6 320714102#0 320714102#1 -321768113#8 -321768113#7 -321768113#6 1062994601#0 1062994601#1 1062994601#2 1062994601#3 -1062994601#3 -1062994601#2 -1062994601#1 -1062994601#0 -321768113#5 -321768113#4 -321768113#3 52168647 635296816#0 635296816#1 53024361#5 53024361#6 53024361#7 53024361#8 53024361#9 693415591 -1135145037 162854030#3 796494573#0 796494573#1 -796494573#1 -796494573#0 162854030#4 162854030#5 -162854030#5 -162854030#4 -162854030#3 1135145037 -693415591 1074142765#0 1074142765#1 -1074142765#1 -1074142765#0 -53024361#9 -53024361#8 50743232#10 50743232#11 50743232#12 321768113#0 321768113#1 321768113#2 -25992052#2 -25992052#1 -25992052#0 -320714100#5 -320714100#4 -320714100#3 -320714100#2 -320714100#1 -320714100#0 -37346737#2 -37346737#1 -37346737#0 37346737#0 37346737#1 37346737#2 320714100#0 320714100#1 320714100#2 320714100#3 320714100#4 52168649#0 52168649#1 52168649#2 321768113#4 321768113#5 321768113#6 321768113#7 321768113#8 -320714102#1 -320714102#0 491319829#6 633635907#0 633635907#1 633635907#2 633635907#3 633635907#4 633635907#5 37346732#0 37346732#1 37346732#2 37346732#3 87054826#0 87054826#1 87054826#2 87054826#3 87054826#4 87054826#5 87054826#6 87054826#7 87054826#8 87054826#9 87054826#10 87054826#11 87054826#12 87054826#13 87054826#14 -155046629#3 -155046629#2 -155046629#1 -155046629#0 86642254#3 86642254#4 25506447#0 25506447#1 539659558#0 51276887#0 51276887#1 25492445#4"/>
    </vehicle>
    <vehicle id="109.0" depart="0.00">
        <route edges="-31725751#4 -31725751#3 -31725755#2 -31725755#1 -31725755#0 52597526#23 52597526#24 52597526#25 52597526#26 52597526#27 52597526#28 52597526#29 52597526#30 52597526#31 52597526#32 37343977#1 37343977#2 37343977#3 37343977#4 37343977#5 37343977#6 37343977#7 37343977#8 37343977#9 37343977#10 37343977#11 37343977#12 37343977#13 37343977#14 37343977#15 37343977#16 37343977#17 37343977#18 -374851977#20 -374851977#19 -374851977#18 -200895566#2 -200895566#1 -200895566#0 200895566#0 200895566#1 200895566#2 374851977#18 374851977#19 374851977#20"/>
    </vehicle>
    <vehicle id="11.0" depart="0.00">
        <route edges="-54357890#1 103179693#0 103179693#1 103179693#2 -103179693#2 103179694#1 83911281#5 83911281#6 83911281#7 83911281#8 83911281#9 -422831119 422831119 50434049#0 50434049#1 50434049#2 50218397#0 50218397#1 -86503277#6 -86503277#5 -86503277#4 -86503277#3 -86503277#2 -86503277#1 -86503277#0 272021674#0 272021674#1 272021674#2 272021674#3 272021672#0 272021672#1 272021672#2 272021672#3 374852690#0 374852690#1 374852690#2 374852690#3 374852690#4 374852690#5 374852690#6 374852690#7 374852690#8 374852690#9 374852690#10 374852690#11 -603226913 -23920957#10 -23920957#9 -23920957#8 -23920957#7 -23920957#6 -23920957#5 -23920957#4 -23920957#3 -86503277#14 86503277#14 86503277#15 -51276866#24 -51276866#23 -51276866#22 -51276866#21 -190598271#1 -190598271#0 23920957#9 23920957#10 603226913 186796675#0 186796675#1 186796675#2 186796675#3 -183002659#6 -183002659#5 -183002659#4 -183002659#3 -183002659#2 -183002659#1 -183002659#0 183002659#0 183002659#1 183002659#2 183002659#3 183002659#4 183002659#5 183002659#6 186796675#4 186796675#5 186796675#6 374851977#13 374851977#14 374851977#15 374851977#16 374851977#17 -200895566#2 -200895566#1 -200895566#0 200895566#0 200895566#1 200895566#2 -374851977#17 -374851977#16 -374851977#15 -374851977#14 -374851977#13 -186796675#6 -186796675#5 -186796675#4 183002659#7 183002659#8 183002659#9 -51276866#11 -51276866#10 -51276866#9 -51276866#8 -51276866#7 -51276866#6 -51276866#5 -51276866#4 -51276866#3 -51276866#2 -26544061#2 -26544061#1 -26544061#0 37343977#17 37343977#18 -374851977#20 -374851977#19 -374851977#18 374851977#18 374851977#19 374851977#20"/>
    </vehicle>
    <vehicle id="110.0" depart="0.00">
        <route edges="86642254#9 86642254#10 86642254#11 86642254#12 86642254#13 86642254#14 86642254#15 86642254#16 86642254#17 86642254#18 86503275#0 86503275#1 86503275#2 -633635907#1 -633635907#0 -491319829#6 -491319829#5 53024361#0 53024361#1 53024361#2 53024361#3 53024361#4 -635296816#1 -635296816#0 -52168647 321768113#3 -52168649#2 -52168649#1 -52168649#0 320714100#5 320714100#6 320714100#7 320714100#8 -50743232#15 -50743232#14 -50743232#13 321768113#0 321768113#1 321768113#2 52168647 635296816#0 635296816#1 635296816#2 635296816#3 635296816#4 369702953#0 1074142764#0 1074142764#1 1074142764#2 -50743232#4 -50743232#3 -50743232#2 -50743232#1 -50743232#0 50743232#0 50743232#1 50743232#2 -191025791 -51276866#1 -51276866#0 51276866#0 51276866#1 191025791 191025792#0 191025792#1 369702953#4 369702953#5 369702953#6 374851977#10 374851977#11 374851977#12 374851977#13 374851977#14 374851977#15 -51276866#4 -51276866#3 -51276866#2 -26544061#2 -26544061#1 -26544061#0 37343977#17 37343977#18 -374851977#20 -374851977#19 -374851977#18 374851977#18 374851977#19 374851977#20"/>
    </vehicle>
    <vehicle id="111.0" depart="0.00">
        <route edges="25492302#1 25492302#2 162854030#0 162854030#1 162854030#2 1135145037 -693415591 1074142765#0 1074142765#1 1074142766#0 1074142766#1 1074142766#2 -50743232#6 -50743232#5 1074142764#3 1074142764#4 1074142764#5 50434022#0 50434022#1 200895566#0 200895566#1 200895566#2 374851977#18 374851977#19 374851977#20 -374851977#20 -374851977#19 -374851977#18 -200895566#2 -200895566#1 -200895566#0 50434022#2 50434022#3 50434022#4 50434022#5 50434022#6 187951698#9 187951698#10 187951698#11 187951698#12 50434028#0 50434028#1 50434028#2 50434021#0 50434021#1 -1074142765#1 -1074142765#0 -53024361#9 -53024361#8 50743232#10 50743232#11 50743232#12 321768113#0 321768113#1 321768113#2 -321768113#2 -321768113#1 -321768113#0 50743232#13 50743232#14 50743232#15 -50743232#15 -50743232#14 -50743232#13 -162854030#5 -162854030#4 162854030#4 162854030#5 -50743232#12 -50743232#11 -50743232#10 53024361#8 53024361#9 693415591 -1135145037 162854030#3 -162854030#3 -162854030#2 -162854030#1 37343977#9 37343977#10 37343977#11 37343977#12 37343977#13 37343977#14 37343977#15 37343977#16 37343977#17 37343977#18"/>
    </vehicle>
    <vehicle id="112.0" depart="0.00">
        <route edges="-189034272#1 -189034272#0 25492462#0 25492462#1 25492462#2 102579135 190598270#0 190598270#1 190598270#2 190598270#3 190598270#4 190598270#5 190598270#6 -56318963#5 -56318963#4 56318963#4 56318963#5 374853409#11 374853409#12 374853409#13 374853409#14 262767663#0 26544107"/>
    </vehicle>
    <vehicle id="113.0" depart="0.00">
        <route edges="188873353#0 188873353#1 188873353#2 188873353#3 -188873353#3 -188873353#2 -188873353#1 -188873353#0 -633635907#5 -633635907#4 -633635907#3 -633635907#2 -633635907#1 -633635907#0 -491319829#6 320714102#0 320714102#1 -321768113#8 -321768113#7 -321768113#6 1062994601#0 1062994601#1 1062994601#2 1062994601#3 -1062994601#3 -1062994601#2 -1062994601#1 -1062994601#0 -321768113#5 -321768113#4 321768113#4 321768113#5 321768113#6 321768113#7 321768113#8 -320714102#1 -320714102#0 491319829#6 633635907#0 633635907#1 633635907#2 633635907#3 633635907#4 633635907#5 37346732#0 37346732#1 37346732#2 37346732#3 87054826#0 87054826#1 87054826#2 87054826#3 87054826#4 87054826#5 91765018#24 91765018#25 91765018#26 91765018#27 91765018#28 91765018#29 91765018#30 91765018#31 91765018#32 91765018#33 91765018#34 91765018#35 91765018#36 91765018#37 91765018#38 91765018#39 -369453296#4 -369453296#3 -369453296#2 -369453296#1 -369453296#0 369453295#0 369453295#1 369453295#2 369453295#3 369453295#4 -369453295#4 -369453295#3 -369453295#2 -369453295#1 -369453295#0 -95930862#5 -95930862#4 -95930862#3 95930862#3 95930862#4 95930862#5 369453296#0 369453296#1 369453296#2 369453296#3 369453296#4 91765018#40 91765018#41 91765018#42 53274156#0 53274156#1 -53274156#1 -53274156#0 91765018#43 91765018#44 91765018#45 91765018#46 91765018#47 91765018#48"/>
    </vehicle>
    <vehicle id="114.0" depart="0.00">
        <route edges="-31725755#1 -31725755#0 31725755#0 31725755#1 31725755#2 -31725755#2"/>
    </vehicle>
    <vehicle id="115.0" depart="0.00">
        <route edges="-23920899#0 35777529#9 35777529#10 35777529#11 35777529#12 35777529#13 35777529#14 35777529#15 35777529#16 35777529#17 35777529#18 -272021674#3 -272021674#2 -272021674#1 -272021674#0 -82924465#4 -82924465#3 -82924465#2 -82924465#1 -82924465#0 -422831119 422831119 50434049#0 50434049#1 50434049#2 50218397#0 50218397#1 86503277#7 86503277#8 86503277#9 86503277#10 86503277#11 86503277#12 86503277#13 86503277#14 -23920957#2 -23920957#1 -47281917#3 -181451416 181451416 -47281917#2 -47281917#1 51276866#26 51276866#27 51276866#28 51276866#29 -520978369#1 -520978369#0 532062611 532062610 47281321#0 47281321#1 -47281321#1 -47281321#0 -532062610 -532062611 520978369#0 520978369#1 182420587#0 189343820 -189343820 182420587#1 182420587#2 -47281324#2 47281917#0 47281917#1 47281917#2 47281917#3 47281917#4 -47281917#4 23920957#1 51510540 -51510540 23920957#2 -86503277#14 -86503277#13 -86503277#12 -86503277#11 -86503277#10 -86503277#9 -86503277#8 -86503277#7 -86503277#6 -86503277#5 -86503277#4 -86503277#3 -86503277#2 -86503277#1 -86503277#0 -186788348#6 -186788348#5 -186788348#4 -186788348#3 -186788348#2 -186788348#1 -186788348#0 -86503276#7 103179694#0 103179694#1 83911281#5 83911281#6 83911281#7 83911281#8 83911281#9 -83911281#9 -83911281#8 -83911281#7 -83911281#6 -83911281#5 -83911281#4 -83911281#3 -1044700334 -1044700335 -581788782#1 -581788782#0 616115571#0 616115571#1 744871137#0 744871137#1 52514447#2 52514447#3 52514447#4 170094569 47281322#0 47281322#1 47281322#2 47281322#3 47281322#4 47281322#5 581788782#0 581788782#1 1044700335 1044700334 -54357890#2 -54357890#1 -54357890#0 -86503276#4 -86503276#3 -86503276#2 -86503276#1 86503276#1 86503276#2 86503276#3 86503276#4 -52038341#2 -52038341#1 -52038341#0 -35777529#8 -35777529#7 -35777529#6 -35777529#5 -35777529#4 -35777529#3 -35777529#2 65677788#0 65677788#1 -65677788#1 -65677788#0 35777529#2 35777529#3 35777529#4 35777529#5 35777529#6 35777529#7 35777529#8 52038341#0 52038341#1 52038341#2 54357890#0 103179693#0 103179693#1 103179693#2 -103179693#2 -103179693#1 -103179693#0 54357890#1 54357890#2 83911281#3 83911281#4 -103179694#1 -103179694#0 -86503276#6 -86503276#5 86503276#5 86503276#6 86503276#7 186788348#0 186788348#1 186788348#2 186788348#3 186788348#4 186788348#5 186788348#6 86503277#0 86503277#1 86503277#2 86503277#3 86503277#4 86503277#5 86503277#6 50218397#2 50218397#3 50218397#4 50218397#5 50218397#6 190598273#0 190598273#1 190598273#2 190598273#3 190598273#4 190598273#5 190598273#6 -23920957#8 -23920957#7 -23920957#6 -23920957#5 -23920957#4 -23920957#3 86503277#15 51276866#25 -47281917#0 47281324#2 182420587#3 51276990 -86503277#18 -86503277#17 -51276991 -47281324#0 86503277#18 -51276990 -182420587#3 -182420587#2 51276993 -51276993 -182420587#1 -182420587#0 -51276866#29 -51276866#28 -51276866#27 -51276866#26 -51276866#25 -51276866#24 51276866#24 -86503277#15 23920957#3 23920957#4 23920957#5 23920957#6 23920957#7 23920957#8 23920957#9 23920957#10 603226913 374852690#12 374852690#13 374852690#14 51276866#14 51276866#15 51276866#16 51276866#17 -51276866#17 -51276866#16 -51276866#15 -51276866#14 374852690#15 22774714#0 51510529#0 51510529#1 -51510529#1 -51510529#0 -22774714#0 22774751#0 22774751#1 22774751#2 22774751#3 362694516#0 362694516#1 362694516#2 362694516#3 362694516#4 362694516#5 362694513 -374852691 374852691 621173203#0 621173203#1 621173203#2 621173203#3 621173203#4 183002659#0 183002659#1 183002659#2 183002659#3 183002659#4 183002659#5 183002659#6 183002659#7 183002659#8 183002659#9 -51276866#11 -51276866#10 -51276866#9 -51276866#8 -51276866#7 -51276866#6 -51276866#5 -51276866#4 -51276866#3 -51276866#2 -51276866#1 -51276866#0 51276866#0 51276866#1 51276866#2 51276866#3 51276866#4 -374851977#15 -374851977#14 -374851977#13 -186796675#6 -186796675#5 -186796675#4 -183002659#6 -183002659#5 -183002659#4 -183002659#3 -183002659#2 -183002659#1 -183002659#0 -621173203#4 -621173203#3 -621173203#2 -621173203#1 -621173203#0 374853409#0 374853409#1 374853409#2 374853409#3 374853409#4 374853409#5 374853409#6 374853409#7 374853409#8 374853409#9 374853409#10 -190598270#6 37177801#6 37177801#7 37177801#8 37177801#9 37177801#10 37177801#11 37177801#12 37177801#13 37177801#14 37177801#15 37177801#16 37177801#17 37177801#18 37177801#19 -272021672#3 -272021672#2 -272021672#1 -272021672#0 272021672#0 272021672#1 272021672#2 272021672#3 374852690#0 374852690#1 374852690#2 374852690#3 374852690#4 51276861#3 -51276861#3 -51276861#2 -51276861#1 -51276861#0 51276861#0 51276861#1 51276861#2 374852690#5 374852690#6 374852690#7 374852690#8 374852690#9 374852690#10 374852690#11 186796675#0 186796675#1 186796675#2 186796675#3 186796675#4 186796675#5 186796675#6 -374851977#12 -374851977#11 -374851977#10 -374851977#9 -374851977#8 -374851977#7 -374851977#6 -374851977#5 -374851977#4 374851977#4 374851977#5 374851977#6 374851977#7 374851977#8 374851977#9 374851977#10 374851977#11 374851977#12 374851977#13 374851977#14 374851977#15 51276866#5 51276866#6 51276866#7 51276866#8 51276866#9 51276866#10 -1110950818#1 -1110950818#0 1110950818#0 1110950818#1 51276866#11 -183002659#9 -183002659#8 -183002659#7 -186796675#3 -186796675#2 -186796675#1 -186796675#0 -603226913 -23920957#10 -23920957#9 -190598273#6 -190598273#5 -190598273#4 -190598273#3 -190598273#2 -190598273#1 -190598273#0 -35777529#26 -35777529#25 -35777529#24 -35777529#23 -35777529#22 -35777529#21 -35777529#20"/>
    </vehicle>
    <vehicle id="116.0" depart="0.00">