<?xml version="1.0" encoding="UTF-8"?>

<!-- generated on 2023-06-18 10:58:14.605531 by generateContinuousRerouters.py UNKNOWN
  options: -n grid.net.xml <doubleminus>end 10000 -o rerouter.add.xml
-->

<additional xmlns:xsi="http://www.w3.org/2001/XMLSchema-instance" xsi:noNamespaceSchemaLocation="http://sumo.dlr.de/xsd/additional_file.xsd">
    <route id="-100100144#1_-100100144#0" edges="-100100144#1 -100100144#0"/>
    <route id="-100100144#1_100100144#1" edges="-100100144#1 100100144#1 -100100144#1"/>
    <rerouter id="rr_-100100144#1" edges="-100100144#1">
        <interval begin="0" end="10000">
            <routeProbReroute id="-100100144#1_-100100144#0" probability="50.0"/>
            <routeProbReroute id="-100100144#1_100100144#1" probability="0"/>
        </interval>
    </rerouter>
    <route id="100100144#0_-100100144#0" edges="100100144#0 -100100144#0"/>
    <route id="100100144#0_100100144#1" edges="100100144#0 100100144#1 -100100144#1"/>
    <rerouter id="rr_100100144#0" edges="100100144#0">
        <interval begin="0" end="10000">
            <routeProbReroute id="100100144#0_-100100144#0" probability="0"/>
            <routeProbReroute id="100100144#0_100100144#1" probability="50.0"/>
        </interval>
    </rerouter>
    <route id="-100100144#0_-374851982#25" edges="-100100144#0 -374851982#25 -374851982#24"/>
    <route id="-100100144#0_100100144#0" edges="-100100144#0 100100144#0"/>
    <route id="-100100144#0_374851982#26" edges="-100100144#0 374851982#26 374851982#27"/>
    <rerouter id="rr_-100100144#0" edges="-100100144#0">
        <interval begin="0" end="10000">
            <routeProbReroute id="-100100144#0_-374851982#25" probability="30.0"/>
            <routeProbReroute id="-100100144#0_100100144#0" probability="0"/>
            <routeProbReroute id="-100100144#0_374851982#26" probability="20.0"/>
        </interval>
    </rerouter>
    <route id="-374851982#26_-374851982#25" edges="-374851982#26 -374851982#25 -374851982#24"/>
    <route id="-374851982#26_100100144#0" edges="-374851982#26 100100144#0"/>
    <rerouter id="rr_-374851982#26" edges="-374851982#26">
        <interval begin="0" end="10000">
            <routeProbReroute id="-374851982#26_-374851982#25" probability="50.0"/>
            <routeProbReroute id="-374851982#26_100100144#0" probability="30.0"/>
        </interval>
    </rerouter>
    <route id="374851982#25_100100144#0" edges="374851982#25 100100144#0"/>
    <route id="374851982#25_374851982#26" edges="374851982#25 374851982#26 374851982#27"/>
    <rerouter id="rr_374851982#25" edges="374851982#25">
        <interval begin="0" end="10000">
            <routeProbReroute id="374851982#25_100100144#0" probability="20.0"/>
            <routeProbReroute id="374851982#25_374851982#26" probability="50.0"/>
        </interval>
    </rerouter>
    <route id="-102579112#1_-102579112#0" edges="-102579112#1 -102579112#0"/>
    <route id="-102579112#1_102579112#1" edges="-102579112#1 102579112#1 -102579112#1"/>
    <route id="-102579112#1_102579116#0" edges="-102579112#1 102579116#0"/>
    <rerouter id="rr_-102579112#1" edges="-102579112#1">
        <interval begin="0" end="10000">
            <routeProbReroute id="-102579112#1_-102579112#0" probability="50.0"/>
            <routeProbReroute id="-102579112#1_102579112#1" probability="0"/>
            <routeProbReroute id="-102579112#1_102579116#0" probability="30.0"/>
        </interval>
    </rerouter>
    <route id="-102579116#0_-102579112#0" edges="-102579116#0 -102579112#0"/>
    <route id="-102579116#0_102579112#1" edges="-102579116#0 102579112#1 -102579112#1"/>
    <route id="-102579116#0_102579116#0" edges="-102579116#0 102579116#0"/>
    <rerouter id="rr_-102579116#0" edges="-102579116#0">
        <interval begin="0" end="10000">
            <routeProbReroute id="-102579116#0_-102579112#0" probability="30.0"/>
            <routeProbReroute id="-102579116#0_102579112#1" probability="20.0"/>
            <routeProbReroute id="-102579116#0_102579116#0" probability="0"/>
        </interval>
    </rerouter>
    <route id="102579112#0_-102579112#0" edges="102579112#0 -102579112#0"/>
    <route id="102579112#0_102579112#1" edges="102579112#0 102579112#1 -102579112#1"/>
    <route id="102579112#0_102579116#0" edges="102579112#0 102579116#0"/>
    <rerouter id="rr_102579112#0" edges="102579112#0">
        <interval begin="0" end="10000">
            <routeProbReroute id="102579112#0_-102579112#0" probability="0"/>
            <routeProbReroute id="102579112#0_102579112#1" probability="50.0"/>
            <routeProbReroute id="102579112#0_102579116#0" probability="20.0"/>
        </interval>
    </rerouter>
    <route id="-102579112#0_-64973291#2" edges="-102579112#0 -64973291#2"/>
    <route id="-102579112#0_102579112#0" edges="-102579112#0 102579112#0"/>
    <route id="-102579112#0_64973291#3" edges="-102579112#0 64973291#3 -64973291#3"/>
    <rerouter id="rr_-102579112#0" edges="-102579112#0">
        <interval begin="0" end="10000">
            <routeProbReroute id="-102579112#0_-64973291#2" probability="30.0"/>
            <routeProbReroute id="-102579112#0_102579112#0" probability="0"/>
            <routeProbReroute id="-102579112#0_64973291#3" probability="20.0"/>
        </interval>
    </rerouter>
    <route id="-64973291#3_-64973291#2" edges="-64973291#3 -64973291#2"/>
    <route id="-64973291#3_102579112#0" edges="-64973291#3 102579112#0"/>
    <rerouter id="rr_-64973291#3" edges="-64973291#3">
        <interval begin="0" end="10000">
            <routeProbReroute id="-64973291#3_-64973291#2" probability="50.0"/>
            <routeProbReroute id="-64973291#3_102579112#0" probability="30.0"/>
        </interval>
    </rerouter>
    <route id="64973291#2_102579112#0" edges="64973291#2 102579112#0"/>
    <route id="64973291#2_64973291#3" edges="64973291#2 64973291#3 -64973291#3"/>
    <rerouter id="rr_64973291#2" edges="64973291#2">
        <interval begin="0" end="10000">
            <routeProbReroute id="64973291#2_102579112#0" probability="20.0"/>
            <routeProbReroute id="64973291#2_64973291#3" probability="50.0"/>
        </interval>
    </rerouter>
    <route id="-102579116#1_-102579116#0" edges="-102579116#1 -102579116#0"/>
    <route id="-102579116#1_-64973293" edges="-102579116#1 -64973293"/>
    <route id="-102579116#1_102579116#1" edges="-102579116#1 102579116#1 64973291#0"/>
    <rerouter id="rr_-102579116#1" edges="-102579116#1">
        <interval begin="0" end="10000">
            <routeProbReroute id="-102579116#1_-102579116#0" probability="50.0"/>
            <routeProbReroute id="-102579116#1_-64973293" probability="30.0"/>
            <routeProbReroute id="-102579116#1_102579116#1" probability="0"/>
        </interval>
    </rerouter>
    <route id="102579116#0_-102579116#0" edges="102579116#0 -102579116#0"/>
    <route id="102579116#0_-64973293" edges="102579116#0 -64973293"/>
    <route id="102579116#0_102579116#1" edges="102579116#0 102579116#1 64973291#0"/>
    <rerouter id="rr_102579116#0" edges="102579116#0">
        <interval begin="0" end="10000">
            <routeProbReroute id="102579116#0_-102579116#0" probability="0"/>
            <routeProbReroute id="102579116#0_-64973293" probability="20.0"/>
            <routeProbReroute id="102579116#0_102579116#1" probability="50.0"/>
        </interval>
    </rerouter>
    <route id="64973293_-102579116#0" edges="64973293 -102579116#0"/>
    <route id="64973293_-64973293" edges="64973293 -64973293"/>
    <route id="64973293_102579116#1" edges="64973293 102579116#1 64973291#0"/>
    <rerouter id="rr_64973293" edges="64973293">
        <interval begin="0" end="10000">
            <routeProbReroute id="64973293_-102579116#0" probability="30.0"/>
            <routeProbReroute id="64973293_-64973293" probability="0"/>
            <routeProbReroute id="64973293_102579116#1" probability="20.0"/>
        </interval>
    </rerouter>
    <route id="-64973291#0_-102579116#1" edges="-64973291#0 -102579116#1"/>
    <route id="-64973291#0_64973291#0" edges="-64973291#0 64973291#0"/>
    <rerouter id="rr_-64973291#0" edges="-64973291#0">
        <interval begin="0" end="10000">
            <routeProbReroute id="-64973291#0_-102579116#1" probability="30.0"/>
            <routeProbReroute id="-64973291#0_64973291#0" probability="0"/>
        </interval>
    </rerouter>
    <route id="102579116#1_64973291#0" edges="102579116#1 64973291#0"/>
    <route id="-190598270#0_-102579135" edges="-190598270#0 -102579135"/>
    <route id="-190598270#0_-35777529#2" edges="-190598270#0 -35777529#2"/>
    <route id="-190598270#0_190598270#0" edges="-190598270#0 190598270#0"/>
    <route id="-190598270#0_35777529#3" edges="-190598270#0 35777529#3"/>
    <rerouter id="rr_-190598270#0" edges="-190598270#0">
        <interval begin="0" end="10000">
            <routeProbReroute id="-190598270#0_-102579135" probability="50.0"/>
            <routeProbReroute id="-190598270#0_-35777529#2" probability="30.0"/>
            <routeProbReroute id="-190598270#0_190598270#0" probability="0"/>
            <routeProbReroute id="-190598270#0_35777529#3" probability="20.0"/>
        </interval>
    </rerouter>
    <route id="-35777529#3_-102579135" edges="-35777529#3 -102579135"/>
    <route id="-35777529#3_-35777529#2" edges="-35777529#3 -35777529#2"/>
    <route id="-35777529#3_190598270#0" edges="-35777529#3 190598270#0"/>
    <route id="-35777529#3_35777529#3" edges="-35777529#3 35777529#3"/>
    <rerouter id="rr_-35777529#3" edges="-35777529#3">
        <interval begin="0" end="10000">
            <routeProbReroute id="-35777529#3_-102579135" probability="20.0"/>
            <routeProbReroute id="-35777529#3_-35777529#2" probability="50.0"/>
            <routeProbReroute id="-35777529#3_190598270#0" probability="30.0"/>
            <routeProbReroute id="-35777529#3_35777529#3" probability="0"/>
        </interval>
    </rerouter>
    <route id="102579135_-102579135" edges="102579135 -102579135"/>
    <route id="102579135_-35777529#2" edges="102579135 -35777529#2"/>
    <route id="102579135_190598270#0" edges="102579135 190598270#0"/>
    <route id="102579135_35777529#3" edges="102579135 35777529#3"/>
    <rerouter id="rr_102579135" edges="102579135">
        <interval begin="0" end="10000">
            <routeProbReroute id="102579135_-102579135" probability="0"/>
            <routeProbReroute id="102579135_-35777529#2" probability="20.0"/>
            <routeProbReroute id="102579135_190598270#0" probability="50.0"/>
            <routeProbReroute id="102579135_35777529#3" probability="30.0"/>
        </interval>
    </rerouter>
    <route id="35777529#2_-102579135" edges="35777529#2 -102579135"/>
    <route id="35777529#2_-35777529#2" edges="35777529#2 -35777529#2"/>
    <route id="35777529#2_190598270#0" edges="35777529#2 190598270#0"/>
    <route id="35777529#2_35777529#3" edges="35777529#2 35777529#3"/>
    <rerouter id="rr_35777529#2" edges="35777529#2">
        <interval begin="0" end="10000">
            <routeProbReroute id="35777529#2_-102579135" probability="30.0"/>
            <routeProbReroute id="35777529#2_-35777529#2" probability="0"/>
            <routeProbReroute id="35777529#2_190598270#0" probability="20.0"/>
            <routeProbReroute id="35777529#2_35777529#3" probability="50.0"/>
        </interval>
    </rerouter>
    <route id="-102579135_-25492462#2" edges="-102579135 -25492462#2"/>
    <route id="-102579135_-52459718#1" edges="-102579135 -52459718#1"/>
    <route id="-102579135_102579135" edges="-102579135 102579135"/>
    <route id="-102579135_86503276#0" edges="-102579135 86503276#0"/>
    <rerouter id="rr_-102579135" edges="-102579135">
        <interval begin="0" end="10000">
            <routeProbReroute id="-102579135_-25492462#2" probability="50.0"/>
            <routeProbReroute id="-102579135_-52459718#1" probability="30.0"/>
            <routeProbReroute id="-102579135_102579135" probability="0"/>
            <routeProbReroute id="-102579135_86503276#0" probability="20.0"/>
        </interval>
    </rerouter>
    <route id="-86503276#0_-25492462#2" edges="-86503276#0 -25492462#2"/>
    <route id="-86503276#0_-52459718#1" edges="-86503276#0 -52459718#1"/>
    <route id="-86503276#0_102579135" edges="-86503276#0 102579135"/>
    <route id="-86503276#0_86503276#0" edges="-86503276#0 86503276#0"/>
    <rerouter id="rr_-86503276#0" edges="-86503276#0">
        <interval begin="0" end="10000">
            <routeProbReroute id="-86503276#0_-25492462#2" probability="20.0"/>
            <routeProbReroute id="-86503276#0_-52459718#1" probability="50.0"/>
            <routeProbReroute id="-86503276#0_102579135" probability="30.0"/>
            <routeProbReroute id="-86503276#0_86503276#0" probability="0"/>
        </interval>
    </rerouter>
    <route id="25492462#2_-25492462#2" edges="25492462#2 -25492462#2"/>
    <route id="25492462#2_-52459718#1" edges="25492462#2 -52459718#1"/>
    <route id="25492462#2_102579135" edges="25492462#2 102579135"/>
    <route id="25492462#2_86503276#0" edges="25492462#2 86503276#0"/>
    <rerouter id="rr_25492462#2" edges="25492462#2">
        <interval begin="0" end="10000">
            <routeProbReroute id="25492462#2_-25492462#2" probability="0"/>
            <routeProbReroute id="25492462#2_-52459718#1" probability="20.0"/>
            <routeProbReroute id="25492462#2_102579135" probability="50.0"/>
            <routeProbReroute id="25492462#2_86503276#0" probability="30.0"/>
        </interval>
    </rerouter>
    <route id="52459718#1_-25492462#2" edges="52459718#1 -25492462#2"/>
    <route id="52459718#1_-52459718#1" edges="52459718#1 -52459718#1"/>
    <route id="52459718#1_102579135" edges="52459718#1 102579135"/>
    <route id="52459718#1_86503276#0" edges="52459718#1 86503276#0"/>
    <rerouter id="rr_52459718#1" edges="52459718#1">
        <interval begin="0" end="10000">
            <routeProbReroute id="52459718#1_-25492462#2" probability="30.0"/>
            <routeProbReroute id="52459718#1_-52459718#1" probability="0"/>
            <routeProbReroute id="52459718#1_102579135" probability="20.0"/>
            <routeProbReroute id="52459718#1_86503276#0" probability="50.0"/>
        </interval>
    </rerouter>
    <route id="102587447_-65677788#1" edges="102587447 -65677788#1 -65677788#0"/>
    <route id="65677788#1_-102587447" edges="65677788#1 -102587447"/>
    <route id="65677788#1_-65677788#1" edges="65677788#1 -65677788#1 -65677788#0"/>
    <rerouter id="rr_65677788#1" edges="65677788#1">
        <interval begin="0" end="10000">
            <routeProbReroute id="65677788#1_-102587447" probability="30.0"/>
            <routeProbReroute id="65677788#1_-65677788#1" probability="0"/>
        </interval>
    </rerouter>
    <route id="-102587447_-88543147#0" edges="-102587447 -88543147#0"/>
    <route id="-102587447_102587447" edges="-102587447 102587447 -65677788#1 -65677788#0"/>
    <route id="-102587447_88543147#1" edges="-102587447 88543147#1 -88543147#1"/>
    <rerouter id="rr_-102587447" edges="-102587447">
        <interval begin="0" end="10000">
            <routeProbReroute id="-102587447_-88543147#0" probability="50.0"/>
            <routeProbReroute id="-102587447_102587447" probability="0"/>
            <routeProbReroute id="-102587447_88543147#1" probability="20.0"/>
        </interval>
    </rerouter>
    <route id="-88543147#1_-88543147#0" edges="-88543147#1 -88543147#0"/>
    <route id="-88543147#1_102587447" edges="-88543147#1 102587447 -65677788#1 -65677788#0"/>
    <route id="-88543147#1_88543147#1" edges="-88543147#1 88543147#1 -88543147#1"/>
    <rerouter id="rr_-88543147#1" edges="-88543147#1">
        <interval begin="0" end="10000">
            <routeProbReroute id="-88543147#1_-88543147#0" probability="20.0"/>
            <routeProbReroute id="-88543147#1_102587447" probability="30.0"/>
            <routeProbReroute id="-88543147#1_88543147#1" probability="0"/>
        </interval>
    </rerouter>
    <route id="88543147#0_-88543147#0" edges="88543147#0 -88543147#0"/>
    <route id="88543147#0_102587447" edges="88543147#0 102587447 -65677788#1 -65677788#0"/>
    <route id="88543147#0_88543147#1" edges="88543147#0 88543147#1 -88543147#1"/>
    <rerouter id="rr_88543147#0" edges="88543147#0">
        <interval begin="0" end="10000">
            <routeProbReroute id="88543147#0_-88543147#0" probability="0"/>
            <routeProbReroute id="88543147#0_102587447" probability="50.0"/>
            <routeProbReroute id="88543147#0_88543147#1" probability="30.0"/>
        </interval>
    </rerouter>
    <route id="102587451_-102587451" edges="102587451 -102587451"/>
    <route id="-102587451_-190598270#3" edges="-102587451 -190598270#3"/>
    <route id="-102587451_102587451" edges="-102587451 102587451 -102587451"/>
    <route id="-102587451_190598270#4" edges="-102587451 190598270#4 190598270#5"/>
    <rerouter id="rr_-102587451" edges="-102587451">
        <interval begin="0" end="10000">
            <routeProbReroute id="-102587451_-190598270#3" probability="30.0"/>
            <routeProbReroute id="-102587451_102587451" probability="0"/>
            <routeProbReroute id="-102587451_190598270#4" probability="20.0"/>
        </interval>
    </rerouter>
    <route id="-190598270#4_-190598270#3" edges="-190598270#4 -190598270#3"/>
    <route id="-190598270#4_102587451" edges="-190598270#4 102587451 -102587451"/>
    <rerouter id="rr_-190598270#4" edges="-190598270#4">
        <interval begin="0" end="10000">
            <routeProbReroute id="-190598270#4_-190598270#3" probability="50.0"/>
            <routeProbReroute id="-190598270#4_102587451" probability="30.0"/>
        </interval>
    </rerouter>
    <route id="190598270#3_102587451" edges="190598270#3 102587451 -102587451"/>
    <route id="190598270#3_190598270#4" edges="190598270#3 190598270#4 190598270#5"/>
    <rerouter id="rr_190598270#3" edges="190598270#3">
        <interval begin="0" end="10000">
            <routeProbReroute id="190598270#3_102587451" probability="20.0"/>
            <routeProbReroute id="190598270#3_190598270#4" probability="50.0"/>
        </interval>
    </rerouter>
    <route id="-102591317#1_-102591317#0" edges="-102591317#1 -102591317#0"/>
    <route id="-102591317#1_102591317#1" edges="-102591317#1 102591317#1"/>
    <rerouter id="rr_-102591317#1" edges="-102591317#1">
        <interval begin="0" end="10000">
            <routeProbReroute id="-102591317#1_-102591317#0" probability="50.0"/>
            <routeProbReroute id="-102591317#1_102591317#1" probability="0"/>
        </interval>
    </rerouter>
    <route id="102591317#0_-102591317#0" edges="102591317#0 -102591317#0"/>
    <route id="102591317#0_102591317#1" edges="102591317#0 102591317#1"/>
    <rerouter id="rr_102591317#0" edges="102591317#0">
        <interval begin="0" end="10000">
            <routeProbReroute id="102591317#0_-102591317#0" probability="0"/>
            <routeProbReroute id="102591317#0_102591317#1" probability="50.0"/>
        </interval>
    </rerouter>
    <route id="-102591317#0_-186788348#3" edges="-102591317#0 -186788348#3"/>
    <route id="-102591317#0_102591317#0" edges="-102591317#0 102591317#0"/>
    <route id="-102591317#0_186788348#4" edges="-102591317#0 186788348#4"/>
    <rerouter id="rr_-102591317#0" edges="-102591317#0">
        <interval begin="0" end="10000">
            <routeProbReroute id="-102591317#0_-186788348#3" probability="30.0"/>
            <routeProbReroute id="-102591317#0_102591317#0" probability="0"/>
            <routeProbReroute id="-102591317#0_186788348#4" probability="20.0"/>
        </interval>
    </rerouter>
    <route id="-186788348#4_-186788348#3" edges="-186788348#4 -186788348#3"/>
    <route id="-186788348#4_102591317#0" edges="-186788348#4 102591317#0"/>
    <rerouter id="rr_-186788348#4" edges="-186788348#4">
        <interval begin="0" end="10000">
            <routeProbReroute id="-186788348#4_-186788348#3" probability="50.0"/>
            <routeProbReroute id="-186788348#4_102591317#0" probability="30.0"/>
        </interval>
    </rerouter>
    <route id="186788348#3_102591317#0" edges="186788348#3 102591317#0"/>
    <route id="186788348#3_186788348#4" edges="186788348#3 186788348#4"/>
    <rerouter id="rr_186788348#3" edges="186788348#3">
        <interval begin="0" end="10000">
            <routeProbReroute id="186788348#3_102591317#0" probability="20.0"/>
            <routeProbReroute id="186788348#3_186788348#4" probability="50.0"/>
        </interval>
    </rerouter>
    <route id="-103179704#1_-102591317#1" edges="-103179704#1 -102591317#1"/>
    <route id="-103179704#1_-103179704#0" edges="-103179704#1 -103179704#0"/>
    <route id="-103179704#1_103179704#1" edges="-103179704#1 103179704#1"/>
    <rerouter id="rr_-103179704#1" edges="-103179704#1">
        <interval begin="0" end="10000">
            <routeProbReroute id="-103179704#1_-102591317#1" probability="20.0"/>
            <routeProbReroute id="-103179704#1_-103179704#0" probability="50.0"/>
            <routeProbReroute id="-103179704#1_103179704#1" probability="0"/>
        </interval>
    </rerouter>
    <route id="102591317#1_-102591317#1" edges="102591317#1 -102591317#1"/>
    <route id="102591317#1_-103179704#0" edges="102591317#1 -103179704#0"/>
    <route id="102591317#1_103179704#1" edges="102591317#1 103179704#1"/>
    <rerouter id="rr_102591317#1" edges="102591317#1">
        <interval begin="0" end="10000">
            <routeProbReroute id="102591317#1_-102591317#1" probability="0"/>
            <routeProbReroute id="102591317#1_-103179704#0" probability="20.0"/>
            <routeProbReroute id="102591317#1_103179704#1" probability="30.0"/>
        </interval>
    </rerouter>
    <route id="103179704#0_-102591317#1" edges="103179704#0 -102591317#1"/>
    <route id="103179704#0_-103179704#0" edges="103179704#0 -103179704#0"/>
    <route id="103179704#0_103179704#1" edges="103179704#0 103179704#1"/>
    <rerouter id="rr_103179704#0" edges="103179704#0">
        <interval begin="0" end="10000">
            <routeProbReroute id="103179704#0_-102591317#1" probability="30.0"/>
            <routeProbReroute id="103179704#0_-103179704#0" probability="0"/>
            <routeProbReroute id="103179704#0_103179704#1" probability="50.0"/>
        </interval>
    </rerouter>
    <route id="-102591339#1_-102591339#0" edges="-102591339#1 -102591339#0"/>
    <route id="-102591339#1_102591339#1" edges="-102591339#1 102591339#1 -102591339#1"/>
    <route id="-102591339#1_1156556550" edges="-102591339#1 1156556550"/>
    <rerouter id="rr_-102591339#1" edges="-102591339#1">
        <interval begin="0" end="10000">
            <routeProbReroute id="-102591339#1_-102591339#0" probability="50.0"/>
            <routeProbReroute id="-102591339#1_102591339#1" probability="0"/>
            <routeProbReroute id="-102591339#1_1156556550" probability="30.0"/>
        </interval>
    </rerouter>
    <route id="-1156556550_-102591339#0" edges="-1156556550 -102591339#0"/>
    <route id="-1156556550_102591339#1" edges="-1156556550 102591339#1 -102591339#1"/>
    <route id="-1156556550_1156556550" edges="-1156556550 1156556550"/>
    <rerouter id="rr_-1156556550" edges="-1156556550">
        <interval begin="0" end="10000">
            <routeProbReroute id="-1156556550_-102591339#0" probability="30.0"/>
            <routeProbReroute id="-1156556550_102591339#1" probability="20.0"/>
            <routeProbReroute id="-1156556550_1156556550" probability="0"/>
        </interval>
    </rerouter>
    <route id="102591339#0_-102591339#0" edges="102591339#0 -102591339#0"/>
    <route id="102591339#0_102591339#1" edges="102591339#0 102591339#1 -102591339#1"/>
    <route id="102591339#0_1156556550" edges="102591339#0 1156556550"/>
    <rerouter id="rr_102591339#0" edges="102591339#0">
        <interval begin="0" end="10000">
            <routeProbReroute id="102591339#0_-102591339#0" probability="0"/>
            <routeProbReroute id="102591339#0_102591339#1" probability="50.0"/>
            <routeProbReroute id="102591339#0_1156556550" probability="20.0"/>
        </interval>
    </rerouter>
    <route id="-102591339#0_-51276882#0" edges="-102591339#0 -51276882#0"/>
    <route id="-102591339#0_102591339#0" edges="-102591339#0 102591339#0"/>
    <route id="-102591339#0_51276882#1" edges="-102591339#0 51276882#1"/>
    <rerouter id="rr_-102591339#0" edges="-102591339#0">
        <interval begin="0" end="10000">
            <routeProbReroute id="-102591339#0_-51276882#0" probability="20.0"/>
            <routeProbReroute id="-102591339#0_102591339#0" probability="0"/>
            <routeProbReroute id="-102591339#0_51276882#1" probability="30.0"/>
        </interval>
    </rerouter>
    <route id="-51276882#1_-51276882#0" edges="-51276882#1 -51276882#0"/>
    <route id="-51276882#1_102591339#0" edges="-51276882#1 102591339#0"/>
    <rerouter id="rr_-51276882#1" edges="-51276882#1">
        <interval begin="0" end="10000">
            <routeProbReroute id="-51276882#1_-51276882#0" probability="50.0"/>
            <routeProbReroute id="-51276882#1_102591339#0" probability="20.0"/>
        </interval>
    </rerouter>
    <route id="51276882#0_102591339#0" edges="51276882#0 102591339#0"/>
    <route id="51276882#0_51276882#1" edges="51276882#0 51276882#1"/>
    <rerouter id="rr_51276882#0" edges="51276882#0">
        <interval begin="0" end="10000">
            <routeProbReroute id="51276882#0_102591339#0" probability="30.0"/>
            <routeProbReroute id="51276882#0_51276882#1" probability="50.0"/>
        </interval>
    </rerouter>
    <route id="-103179693#1_-103179693#0" edges="-103179693#1 -103179693#0"/>
    <route id="103179693#0_103179693#1" edges="103179693#0 103179693#1"/>
    <route id="-103179693#0_-54357890#0" edges="-103179693#0 -54357890#0"/>
    <route id="-103179693#0_103179693#0" edges="-103179693#0 103179693#0 103179693#1"/>
    <route id="-103179693#0_54357890#1" edges="-103179693#0 54357890#1"/>
    <rerouter id="rr_-103179693#0" edges="-103179693#0">
        <interval begin="0" end="10000">
            <routeProbReroute id="-103179693#0_-54357890#0" probability="30.0"/>
            <routeProbReroute id="-103179693#0_103179693#0" probability="0"/>
            <routeProbReroute id="-103179693#0_54357890#1" probability="20.0"/>
        </interval>
    </rerouter>
    <route id="-54357890#1_-54357890#0" edges="-54357890#1 -54357890#0"/>
    <route id="-54357890#1_103179693#0" edges="-54357890#1 103179693#0 103179693#1"/>
    <route id="-54357890#1_54357890#1" edges="-54357890#1 54357890#1"/>
    <rerouter id="rr_-54357890#1" edges="-54357890#1">
        <interval begin="0" end="10000">
            <routeProbReroute id="-54357890#1_-54357890#0" probability="50.0"/>
            <routeProbReroute id="-54357890#1_103179693#0" probability="30.0"/>
            <routeProbReroute id="-54357890#1_54357890#1" probability="0"/>
        </interval>
    </rerouter>
    <route id="54357890#0_-54357890#0" edges="54357890#0 -54357890#0"/>
    <route id="54357890#0_103179693#0" edges="54357890#0 103179693#0 103179693#1"/>
    <route id="54357890#0_54357890#1" edges="54357890#0 54357890#1"/>
    <rerouter id="rr_54357890#0" edges="54357890#0">
        <interval begin="0" end="10000">
            <routeProbReroute id="54357890#0_-54357890#0" probability="0"/>
            <routeProbReroute id="54357890#0_103179693#0" probability="20.0"/>
            <routeProbReroute id="54357890#0_54357890#1" probability="50.0"/>
        </interval>
    </rerouter>
    <route id="-103179693#2_-103179693#1" edges="-103179693#2 -103179693#1 -103179693#0"/>
    <route id="-103179693#2_-103179694#0" edges="-103179693#2 -103179694#0"/>
    <route id="-103179693#2_103179693#2" edges="-103179693#2 103179693#2 -103179693#2"/>
    <route id="-103179693#2_103179694#1" edges="-103179693#2 103179694#1"/>
    <rerouter id="rr_-103179693#2" edges="-103179693#2">
        <interval begin="0" end="10000">
            <routeProbReroute id="-103179693#2_-103179693#1" probability="50.0"/>
            <routeProbReroute id="-103179693#2_-103179694#0" probability="30.0"/>
            <routeProbReroute id="-103179693#2_103179693#2" probability="0"/>
            <routeProbReroute id="-103179693#2_103179694#1" probability="20.0"/>
        </interval>
    </rerouter>
    <route id="-103179694#1_-103179693#1" edges="-103179694#1 -103179693#1 -103179693#0"/>
    <route id="-103179694#1_-103179694#0" edges="-103179694#1 -103179694#0"/>
    <route id="-103179694#1_103179693#2" edges="-103179694#1 103179693#2 -103179693#2"/>
    <route id="-103179694#1_103179694#1" edges="-103179694#1 103179694#1"/>
    <rerouter id="rr_-103179694#1" edges="-103179694#1">
        <interval begin="0" end="10000">
            <routeProbReroute id="-103179694#1_-103179693#1" probability="20.0"/>
            <routeProbReroute id="-103179694#1_-103179694#0" probability="50.0"/>
            <routeProbReroute id="-103179694#1_103179693#2" probability="30.0"/>
            <routeProbReroute id="-103179694#1_103179694#1" probability="0"/>
        </interval>
    </rerouter>
    <route id="103179693#1_-103179693#1" edges="103179693#1 -103179693#1 -103179693#0"/>
    <route id="103179693#1_-103179694#0" edges="103179693#1 -103179694#0"/>
    <route id="103179693#1_103179693#2" edges="103179693#1 103179693#2 -103179693#2"/>
    <route id="103179693#1_103179694#1" edges="103179693#1 103179694#1"/>
    <rerouter id="rr_103179693#1" edges="103179693#1">
        <interval begin="0" end="10000">
            <routeProbReroute id="103179693#1_-103179693#1" probability="0"/>
            <routeProbReroute id="103179693#1_-103179694#0" probability="20.0"/>
            <routeProbReroute id="103179693#1_103179693#2" probability="50.0"/>
            <routeProbReroute id="103179693#1_103179694#1" probability="30.0"/>
        </interval>